Version 4
SHEET 1 1224 680
SYMBOL nmos 160 112 R0
SYMATTR InstName M1
SYMATTR Value BSZ0901NSI
SYMBOL schottky 320 368 R0
SYMATTR InstName D1
SYMATTR Value RBR3L30B
SYMATTR Description Diode
SYMATTR Type diode
SYMBOL schottky 672 336 R0
SYMATTR InstName D2
SYMATTR Value PMEG6010AED
SYMATTR Description Diode
SYMATTR Type diode
SYMBOL PowerProducts\\LTC4446 -256 176 R0
SYMATTR InstName U1
SYMBOL load 1088 32 R0
SYMATTR InstName I1
TEXT 160 40 Left 2 ;Note: Desired Gate Charge = 20nC\n          Sim Gate Charge= 19nC
TEXT 424 368 Left 2 ;1st Diode
TEXT 760 336 Left 2 ;2nd Schottkey Diode
TEXT -408 -24 Left 2 ;High Voltage high and low-side driver
TEXT 1056 -16 Left 2 ;Load (Motors)
